* NGSPICE file created from sg13_rf_cmim.ext - technology: ihp-sg13g2

.subckt sg13_rf_cmim C1 C0 CX
X0 C0 C1 cap_rfcmim l=10u w=10u
.ends

