* NGSPICE file created from sg13_dpantenna.ext - technology: ihp-sg13g2

.subckt sg13_dpantenna B A
X0 A B dpantenna l=0.78u w=0.78u
.ends

