* NGSPICE file created from sg13_dantenna.ext - technology: ihp-sg13g2

.subckt sg13_dantenna B C
X0 B C dantenna l=0.78u w=0.78u
.ends

