* NGSPICE file created from sg13_rppd.ext - technology: ihp-sg13g2

.subckt sg13_rppd R0 R1
X0 R0 R1 sub rppd l=0.5u w=0.5u
.ends

