* NGSPICE file created from sg13_schottky_nbl1.ext - technology: ihp-sg13g2

.subckt sg13_schottky_nbl1 B C A
X0 A C B schottky_nbl1 l=1.2u w=2.655u
.ends

