* NGSPICE file created from sg13_lv_nmos_ring_dev.ext - technology: ihp-sg13g2

.subckt sg13_lv_nmos_ring_dev G B D S
X0 S G D B sg13_lv_nmos ad=0.1005p pd=1.34u as=0.1005p ps=1.34u w=0.15u l=0.13u
.ends

