* NGSPICE file created from sg13_rsil.ext - technology: ihp-sg13g2

.subckt sg13_rsil R1 R0
X0 R1 R0 sub rsil l=0.5u w=0.5u
.ends

