* NGSPICE file created from sg13_hv_rf_nmos.ext - technology: ihp-sg13g2

.subckt sg13_hv_rf_nmos D S G B
X0 D G S B sg13_hv_nmos ad=0.345p pd=2.69u as=0.345p ps=2.69u w=1u l=0.72u
.ends

