* NGSPICE file created from sg13_hv_pmos_ring_pcell.ext - technology: ihp-sg13g2

.subckt sg13_hv_pmos_ring_pcell B D S G
X0 S G D B sg13_hv_pmos ad=0.102p pd=1.28u as=0.102p ps=1.28u w=0.3u l=0.4u
.ends

