* NGSPICE file created from sg13_lv_rf_pmos.ext - technology: ihp-sg13g2

.subckt sg13_lv_rf_pmos S D G B
X0 D G S B sg13_lv_pmos ad=0.345p pd=2.69u as=0.345p ps=2.69u w=1u l=0.72u
.ends

