* NGSPICE file created from sg13_lv_pmos_tap.ext - technology: ihp-sg13g2

.subckt sg13_lv_pmos_tap G D S B
X0 S G D B sg13_lv_pmos ad=0.1005p pd=1.34u as=0.1005p ps=1.34u w=0.15u l=0.13u
.ends

