* NGSPICE file created from sg13_rhigh.ext - technology: ihp-sg13g2

.subckt sg13_rhigh R0 R1
X0 R0 R1 sub rhigh l=0.96u w=0.5u
.ends

