* NGSPICE file created from sg13_cmim.ext - technology: ihp-sg13g2

.subckt sg13_cmim C1 C0
X0 C0 C1 cap_cmim l=7u w=7u
.ends

