* NGSPICE file created from sg13_hv_pmos_tap.ext - technology: ihp-sg13g2

.subckt sg13_hv_pmos_tap D S G B
X0 S G D B sg13_hv_pmos ad=0.102p pd=1.28u as=0.102p ps=1.28u w=0.3u l=0.4u
.ends

