* NGSPICE file created from sg13_hv_rf_pmos.ext - technology: ihp-sg13g2

.subckt sg13_hv_rf_pmos B G D S
X0 D G S B sg13_hv_pmos ad=0.345p pd=2.69u as=0.345p ps=2.69u w=1u l=0.72u
.ends

